/*--------------------------------*- C++ -*----------------------------------*\
| =========                 |                                                 |
| \\      /  F ield         | OpenFOAM: The Open Source CFD Toolbox           |
|  \\    /   O peration     | Version:  v1706                                 |
|   \\  /    A nd           | Web:      www.OpenFOAM.com                      |
|    \\/     M anipulation  |                                                 |
\*---------------------------------------------------------------------------*/
FoamFile
{
    version     2.0;
    format      ascii;
    class       polyBoundaryMesh;
    location    "constant/polyMesh";
    object      boundary;
}
// * * * * * * * * * * * * * * * * * * * * * * * * * * * * * * * * * * * * * //

6
(
    inflow
    {
        type            patch;
        nFaces          132;
        startFace       43000;
    }
    vacuum
    {
        type            patch;
        nFaces          132;
        startFace       43132;
    }
    sym
    {
        type            symmetry;
        inGroups        1(symmetry);
        nFaces          164;
        startFace       43264;
    }
    front
    {
        type            wedge;
        inGroups        1(wedge);
        nFaces          21648;
        startFace       43428;
    }
    back
    {
        type            wedge;
        inGroups        1(wedge);
        nFaces          21648;
        startFace       65076;
    }
    axis
    {
        type            empty;
        inGroups        1(empty);
        nFaces          0;
        startFace       86724;
    }
)

// ************************************************************************* //
