FoamFile
{
    version     2.0;
    format      ascii;
    class       polyBoundaryMesh;
    location    "constant/polyMesh";
    object      boundary;
}

3         
(
    inflow
    {
        type patch;
        nFaces 1;
        startFace 254;
    }
    noSolution
    {
        type symmetry;
        nFaces 765;
        startFace 255;
    }
    vacuum
    {
        type patch;
        nFaces 1;
        startFace 1020;
    }
)
