/*--------------------------------*- C++ -*----------------------------------*\
| =========                 |                                                 |
| \\      /  F ield         | OpenFOAM: The Open Source CFD Toolbox           |
|  \\    /   O peration     | Version:  v1706                                 |
|   \\  /    A nd           | Web:      www.OpenFOAM.com                      |
|    \\/     M anipulation  |                                                 |
\*---------------------------------------------------------------------------*/
FoamFile
{
    version     2.0;
    format      ascii;
    class       polyBoundaryMesh;
    location    "constant/polyMesh";
    object      boundary;
}
// * * * * * * * * * * * * * * * * * * * * * * * * * * * * * * * * * * * * * //

3
(
    inflow
    {
        type            patch;
        nFaces          1;
        startFace       254;
    }
    vacuum
    {
        type            patch;
        nFaces          1;
        startFace       255;
    }
    sides
    {
        type            symmetry;
        inGroups        1(symmetry);
        nFaces          1020;
        startFace       256;
    }
)

// ************************************************************************* //
