/*--------------------------------*- C++ -*----------------------------------*\
| =========                 |                                                 |
| \\      /  F ield         | OpenFOAM: The Open Source CFD Toolbox           |
|  \\    /   O peration     | Version:  v2106                                 |
|   \\  /    A nd           | Website:  www.openfoam.com                      |
|    \\/     M anipulation  |                                                 |
\*---------------------------------------------------------------------------*/
FoamFile
{
    version     2.0;
    format      ascii;
    class       dictionary;
    object      blockMeshDict;
}
// * * * * * * * * * * * * * * * * * * * * * * * * * * * * * * * * * * * * * //

scale   1;

vertices
(
    (1 	-0.0436 -0.0436)    //0
    (20 -0.8724 -0.8724)
    (20 0.8724 -0.8724)
    (1  0.0436 -0.0436)

    (1  -0.0436 0.0436)    //0   
    (20 -0.8724 0.8724)      
    (20 0.8724 0.8724)
    (1  0.0436 0.0436)    

);

blocks
(
    hex (0 1 2 3 4 5 6 7) (255 1 1) simpleGrading (1 1 1)
);

edges
(
);

boundary
(
    inflow
    {
        type patch;
        faces
        (
            (0 3 4 7)
        );
    }
    vacuum
    {
        type patch;
        faces
        (
            (1 2 6 5)
        );
    }
    sides
    {
        type symmetry;
        faces
        (
            (4 5 6 7)
            (0 1 4 5)
	    (3 2 6 7)
            (1 2 3 0)
        );
    }
);

mergePatchPairs
(
);
// ************************************************************************* //
