/*--------------------------------*- C++ -*----------------------------------*\
| =========                 |                                                 |
| \      /  F ield         | OpenFOAM: The Open Source CFD Toolbox           |
|  \    /   O peration     | Version:  v2106                                 |
|   \  /    A nd           | Website:  www.openfoam.com                      |
|    \/     M anipulation  |                                                 |
\*---------------------------------------------------------------------------*/
FoamFile
{
	 version     2.0;
	 format      ascii;
	 class       dictionary;
	 object      blockMeshDict;
}
// * * * * * * * * * * * * * * * * * * * * * * * * * * * * * * * * * * * * * //

scale 1;

convertToMeters 1.0;

vertices
(
	(1.050000e+00	0.000000e+00	0.000000e+00)
	(0.000000e+00	1.049001e+00	-4.580036e-02)
	(0.000000e+00	1.049001e+00	4.580036e-02)
	(0.000000e+00	1.998096e+01	-8.723877e-01)
	(0.000000e+00	1.998096e+01	8.723877e-01)
	(2.000000e+01	0.000000e+00	0.000000e+00)
);

blocks
(
	hex (0 1 2 0 5 3 4 5) (33 1 41) simpleGrading (1 1 10.0000)
);

edges
(
	arc 4 5 (14.1421 14.1287 0.6169 )
	arc 3 5 (14.1421 14.1287 -0.6169 )
	arc 2 0 (0.7425 0.7418 0.0324 )
	arc 1 0 (0.7425 0.7418 -0.0324 )
);

boundary
(
	inflow
	{
		type patch;
		faces
		(
			(0 1 2 0)
		);
	}

	vacuum
	{
		type patch;
		faces
		(
			(5 3 4 5)
		);
	}

	sym
	{
		type symmetry;
		faces
		(
			(1 3 4 2)
		);
	}

	front
	{
		type symmetry;
		faces
		(
			(0 2 4 5)
		);
	}

	back
	{
		type symmetry;
		faces
		(
			(0 1 3 5)
		);
	}

	axis
	{
		type empty;
		faces
		(
			(0 5 5 0)
		);
	}
);

mergePatchPairs
(
);

// * * * * * * * * * * * * * * * * * * * * * * * * * * * * * * * * * * * * * //