/*--------------------------------*- C++ -*----------------------------------*\
| ========= | |
| \\ / F ield | OpenFOAM: The Open Source CFD Toolbox |
| \\ / O peration | Version: 2.4.0 |
| \\ / A nd | Web: www.OpenFOAM.org |
| \\/ M anipulation | |
\*---------------------------------------------------------------------------*/
FoamFile
{
version 2.0;
format ascii;
class dictionary;
location "system";
object sampleDict;
}
// * * * * * * * * * * * * * * * * * * * * * * * * * * * * * * * * * * * * * //


type surfaces;


interpolationScheme cellPointFace;


surfaceFormat raw;


surfaces
(
//    inflow
//   {
//        type patch;
//        patches (".*inflow.*");
//    }

    plane
    {
        type            plane;
        planeType       pointAndNormal;
        pointAndNormalDict
        {
            basePoint           (0 0 0);
            normalVector        (0 0 1);
            interpolate            true;
        }
    }
);

fields (U_Ar);