FoamFile
{
    version     2.0;
    format      ascii;
    class       polyBoundaryMesh;
    location    "constant/polyMesh";
    object      boundary;
}

3         
(
    inflow
    {
        type Unspecified;
        nFaces 2044;
        startFace 195577;
    }
    panel
    {
        type Unspecified;
        nFaces 1686;
        startFace 197621;
    }
    vacuum
    {
        type patch;
        nFaces 15692;
        startFace 199307;
    }
)
