/*--------------------------------*- C++ -*----------------------------------*\
| =========                 |                                                 |
| \\      /  F ield         | OpenFOAM: The Open Source CFD Toolbox           |
|  \\    /   O peration     | Version:  v1706                                 |
|   \\  /    A nd           | Web:      www.OpenFOAM.com                      |
|    \\/     M anipulation  |                                                 |
\*---------------------------------------------------------------------------*/
FoamFile
{
    version     2.0;
    format      ascii;
    class       polyBoundaryMesh;
    location    "constant/polyMesh";
    object      boundary;
}
// * * * * * * * * * * * * * * * * * * * * * * * * * * * * * * * * * * * * * //

6
(
    inflow
    {
        type            patch;
        nFaces          33;
        startFace       2632;
    }
    vacuum
    {
        type            patch;
        nFaces          33;
        startFace       2665;
    }
    sym
    {
        type            symmetry;
        inGroups        1(symmetry);
        nFaces          41;
        startFace       2698;
    }
    front
    {
        type            symmetry;
        inGroups        1(symmetry);
        nFaces          1353;
        startFace       2739;
    }
    back
    {
        type            symmetry;
        inGroups        1(symmetry);
        nFaces          1353;
        startFace       4092;
    }
    axis
    {
        type            empty;
        inGroups        1(empty);
        nFaces          0;
        startFace       5445;
    }
)

// ************************************************************************* //
