FoamFile
{
    version     2.0;
    format      ascii;
    class       polyBoundaryMesh;
    location    "constant/polyMesh";
    object      boundary;
}

5         
(
    cylinder
    {
        type wall;
        nFaces 823;
        startFace 96778;
    }
    inflow
    {
        type patch;
        nFaces 532;
        startFace 97601;
    }
    plate
    {
        type wall;
        nFaces 1210;
        startFace 98133;
    }
    sym
    {
        type symmetry;
        nFaces 5329;
        startFace 99343;
    }
    vacuum
    {
        type patch;
        nFaces 2450;
        startFace 104672;
    }
)
