/*--------------------------------*- C++ -*----------------------------------*\
| =========                 |                                                 |
| \\      /  F ield         | OpenFOAM: The Open Source CFD Toolbox           |
|  \\    /   O peration     | Version:  v1706                                 |
|   \\  /    A nd           | Web:      www.OpenFOAM.com                      |
|    \\/     M anipulation  |                                                 |
\*---------------------------------------------------------------------------*/
FoamFile
{
     version     2.0;
     format      ascii;
     class       dictionary;
     object      blockMeshDict;
}
// * * * * * * * * * * * * * * * * * * * * * * * * * * * * * * * * * * * * * //

scale        1;

vertices
(
    (1.005 -0.009 -0.009) // 0
    (25.0 -0.218 -0.218) // 1
    (25.0 0.218 -0.218) // 2
    (1.005 0.009 -0.009) // 3
    (1.005 -0.009 0.009) // 4
    (25.0 -0.218 0.218) // 5
    (25.0 0.218 0.218) // 6
    (1.005 0.009 0.009) // 7
);

blocks
(
     hex (0 1 2 3 4 5 6 7) (255 1 1) simpleGrading (1 1 1)
);

edges
(
);

boundary
(
     inflow
     {
         type patch;
         faces
         (
             (0 3 4 7)
         );
     }

     vacuum
     {
         type patch;
         faces
         (
             (1 2 6 5)
         );
     }

     sides
     {
         type symmetry;
         faces
         (
             (4 5 6 7)
             (0 1 4 5)
             (3 2 6 7)
             (1 2 3 0)
         );
     }
);

// * * * * * * * * * * * * * * * * * * * * * * * * * * * * * * * * * * * * * //
