/*--------------------------------*- C++ -*----------------------------------*\
| ========= | |
| \\ / F ield | OpenFOAM: The Open Source CFD Toolbox |
| \\ / O peration | Version: 2.4.0 |
| \\ / A nd | Web: www.OpenFOAM.org |
| \\/ M anipulation | |
\*---------------------------------------------------------------------------*/
FoamFile
{
version 2.0;
format ascii;
class dictionary;
location "system";
object sampleDict;
}
// * * * * * * * * * * * * * * * * * * * * * * * * * * * * * * * * * * * * * //


type sets;


interpolationScheme cellPointFace;


setFormat csv;


sets
(
horizontalLine
{
type midPointAndFace;
axis x;
start ( 1.05 0.0 0.0 );
end ( 25.0 0.0 0.0 );
}
);


fields (rhoN_Ar Ttra_Ar);